CM COCOANEC 2.0  2013-11-27 00:49 2013-11-27 00:49
CE ----------
GW  1   37  0.000000  0.000000  0.001590  0.037300  0.000000  0.001590  6.35E-05
GW  2    1  0.005000  0.000000  0.001590  0.008520  0.000000  0.001590  3.20E-04
GE  1
FR  0    1    0    0  800.0000  0.000000
GN  0    0    0    0  4.500000  0.005000
EX  0    1    7    1  1.000000  0.000000                                        
XQ
RP  0    1  360 1000  70.00000     0.000     0.000     1.000 5.000E+03
RP  0  360    1 1000   -90.000  0.000000     1.000     0.000 5.000E+03
RP  0   91  120 1001     0.000     0.000     2.000     3.000 5.000E+03
XQ
FR  0    1    0    0  907.6923  0.000000
GN  0    0    0    0  4.500000  0.005000
EX  0    1    7    1  1.000000  0.000000                                        
XQ
RP  0    1  360 1000  70.00000     0.000     0.000     1.000 5.000E+03
RP  0  360    1 1000   -90.000  0.000000     1.000     0.000 5.000E+03
XQ
FR  0    1    0    0  1015.385  0.000000
GN  0    0    0    0  4.500000  0.005000
EX  0    1    7    1  1.000000  0.000000                                        
XQ
RP  0    1  360 1000  70.00000     0.000     0.000     1.000 5.000E+03
RP  0  360    1 1000   -90.000  0.000000     1.000     0.000 5.000E+03
XQ
FR  0    1    0    0  1123.077  0.000000
GN  0    0    0    0  4.500000  0.005000
EX  0    1    7    1  1.000000  0.000000                                        
XQ
RP  0    1  360 1000  70.00000     0.000     0.000     1.000 5.000E+03
RP  0  360    1 1000   -90.000  0.000000     1.000     0.000 5.000E+03
XQ
FR  0    1    0    0  1230.769  0.000000
GN  0    0    0    0  4.500000  0.005000
EX  0    1    7    1  1.000000  0.000000                                        
XQ
RP  0    1  360 1000  70.00000     0.000     0.000     1.000 5.000E+03
RP  0  360    1 1000   -90.000  0.000000     1.000     0.000 5.000E+03
XQ
FR  0    1    0    0  1338.462  0.000000
GN  0    0    0    0  4.500000  0.005000
EX  0    1    7    1  1.000000  0.000000                                        
XQ
RP  0    1  360 1000  70.00000     0.000     0.000     1.000 5.000E+03
RP  0  360    1 1000   -90.000  0.000000     1.000     0.000 5.000E+03
XQ
FR  0    1    0    0  1446.154  0.000000
GN  0    0    0    0  4.500000  0.005000
EX  0    1    7    1  1.000000  0.000000                                        
XQ
RP  0    1  360 1000  70.00000     0.000     0.000     1.000 5.000E+03
RP  0  360    1 1000   -90.000  0.000000     1.000     0.000 5.000E+03
XQ
FR  0    1    0    0  1553.846  0.000000
GN  0    0    0    0  4.500000  0.005000
EX  0    1    7    1  1.000000  0.000000                                        
XQ
RP  0    1  360 1000  70.00000     0.000     0.000     1.000 5.000E+03
RP  0  360    1 1000   -90.000  0.000000     1.000     0.000 5.000E+03
XQ
FR  0    1    0    0  1661.538  0.000000
GN  0    0    0    0  4.500000  0.005000
EX  0    1    7    1  1.000000  0.000000                                        
XQ
RP  0    1  360 1000  70.00000     0.000     0.000     1.000 5.000E+03
RP  0  360    1 1000   -90.000  0.000000     1.000     0.000 5.000E+03
XQ
FR  0    1    0    0  1769.231  0.000000
GN  0    0    0    0  4.500000  0.005000
EX  0    1    7    1  1.000000  0.000000                                        
XQ
RP  0    1  360 1000  70.00000     0.000     0.000     1.000 5.000E+03
RP  0  360    1 1000   -90.000  0.000000     1.000     0.000 5.000E+03
XQ
FR  0    1    0    0  1876.923  0.000000
GN  0    0    0    0  4.500000  0.005000
EX  0    1    7    1  1.000000  0.000000                                        
XQ
RP  0    1  360 1000  70.00000     0.000     0.000     1.000 5.000E+03
RP  0  360    1 1000   -90.000  0.000000     1.000     0.000 5.000E+03
XQ
FR  0    1    0    0  1984.615  0.000000
GN  0    0    0    0  4.500000  0.005000
EX  0    1    7    1  1.000000  0.000000                                        
XQ
RP  0    1  360 1000  70.00000     0.000     0.000     1.000 5.000E+03
RP  0  360    1 1000   -90.000  0.000000     1.000     0.000 5.000E+03
XQ
FR  0    1    0    0  2092.308  0.000000
GN  0    0    0    0  4.500000  0.005000
EX  0    1    7    1  1.000000  0.000000                                        
XQ
RP  0    1  360 1000  70.00000     0.000     0.000     1.000 5.000E+03
RP  0  360    1 1000   -90.000  0.000000     1.000     0.000 5.000E+03
XQ
FR  0    1    0    0  2200.000  0.000000
GN  0    0    0    0  4.500000  0.005000
EX  0    1    7    1  1.000000  0.000000                                        
XQ
RP  0    1  360 1000  70.00000     0.000     0.000     1.000 5.000E+03
RP  0  360    1 1000   -90.000  0.000000     1.000     0.000 5.000E+03
XQ
EN
